<?xml version="1.0" encoding="UTF-8"?>

<!-- generated on 2024-05-30 09:21:00 by Eclipse SUMO netconvert Version 1.18.0
<configuration xmlns:xsi="http://www.w3.org/2001/XMLSchema-instance" xsi:noNamespaceSchemaLocation="http://sumo.dlr.de/xsd/netconvertConfiguration.xsd">

    <input>
        <osm-files value="map.osm"/>
    </input>

    <output>
        <output-file value="map.net.xml"/>
    </output>

    <projection>
        <proj.utm value="true"/>
    </projection>

</configuration>
-->

<net version="1.16" junctionCornerDetail="5" limitTurnSpeed="5.50" xmlns:xsi="http://www.w3.org/2001/XMLSchema-instance" xsi:noNamespaceSchemaLocation="http://sumo.dlr.de/xsd/net_file.xsd">

    <location netOffset="-547129.82,-4540186.21" convBoundary="0.00,0.00,2899.76,2315.61" origBoundary="39.546914,41.005164,39.595011,41.032369" projParameter="+proj=utm +zone=37 +ellps=WGS84 +datum=WGS84 +units=m +no_defs"/>

    <type id="highway.footway" priority="1" numLanes="1" speed="2.78" allow="pedestrian" oneway="1" width="2.00"/>
    <type id="highway.living_street" priority="2" numLanes="1" speed="2.78" disallow="tram rail_urban rail rail_electric rail_fast ship" oneway="0"/>
    <type id="highway.pedestrian" priority="1" numLanes="1" speed="2.78" allow="pedestrian" oneway="1" width="2.00"/>
    <type id="highway.residential" priority="3" numLanes="1" speed="13.89" disallow="tram rail_urban rail rail_electric rail_fast ship" oneway="0"/>
    <type id="highway.service" priority="1" numLanes="1" speed="5.56" allow="pedestrian delivery bicycle" oneway="0"/>
    <type id="highway.steps" priority="1" numLanes="1" speed="1.39" allow="pedestrian" oneway="1" width="2.00"/>
    <type id="highway.tertiary" priority="10" numLanes="1" speed="22.22" disallow="tram rail_urban rail rail_electric rail_fast ship" oneway="0"/>
    <type id="highway.trunk" priority="13" numLanes="2" speed="27.78" disallow="pedestrian bicycle tram rail_urban rail rail_electric rail_fast ship" oneway="0"/>
    <type id="highway.trunk_link" priority="8" numLanes="1" speed="22.22" disallow="pedestrian bicycle tram rail_urban rail rail_electric rail_fast ship" oneway="0"/>
    <type id="highway.unclassified" priority="4" numLanes="1" speed="13.89" disallow="tram rail_urban rail rail_electric rail_fast ship" oneway="0"/>

    <edge id=":10943886922_0" function="internal">
        <lane id=":10943886922_0_0" index="0" disallow="pedestrian bicycle tram rail_urban rail rail_electric rail_fast ship" speed="5.75" length="8.04" shape="1557.13,939.61 1558.62,938.33 1559.10,936.80 1558.56,934.99 1557.01,932.93"/>
    </edge>
    <edge id=":10943886922_1" function="internal">
        <lane id=":10943886922_1_0" index="0" disallow="pedestrian bicycle tram rail_urban rail rail_electric rail_fast ship" speed="27.78" length="9.87" shape="1557.13,939.61 1565.71,934.72"/>
        <lane id=":10943886922_1_1" index="1" disallow="pedestrian bicycle tram rail_urban rail rail_electric rail_fast ship" speed="27.78" length="9.87" shape="1558.72,942.39 1567.29,937.50"/>
    </edge>
    <edge id=":10943886926_0" function="internal">
        <lane id=":10943886926_0_0" index="0" disallow="pedestrian bicycle tram rail_urban rail rail_electric rail_fast ship" speed="8.60" length="11.10" shape="1547.54,915.18 1546.86,912.51 1547.02,909.92 1548.02,907.41 1549.85,904.98"/>
    </edge>
    <edge id=":10943886926_1" function="internal">
        <lane id=":10943886926_1_0" index="0" disallow="tram rail_urban rail rail_electric rail_fast ship" speed="5.44" length="7.83" shape="1543.96,903.41 1545.21,905.51 1546.61,906.46 1548.16,906.29 1549.85,904.98"/>
    </edge>
    <edge id=":10943886926_2" function="internal">
        <lane id=":10943886926_2_0" index="0" disallow="tram rail_urban rail rail_electric rail_fast ship" speed="22.22" length="12.66" shape="1540.47,913.47 1543.09,911.32 1545.33,909.40 1547.48,907.39 1549.85,904.98"/>
    </edge>
    <edge id=":10943886927_0" function="internal">
        <lane id=":10943886927_0_0" index="0" disallow="tram rail_urban rail rail_electric rail_fast ship" speed="6.70" length="8.32" shape="1530.18,921.56 1531.17,920.43 1531.52,918.77 1531.21,916.57 1530.26,913.83"/>
    </edge>
    <edge id=":10943886927_1" function="internal">
        <lane id=":10943886927_1_0" index="0" disallow="tram rail_urban rail rail_electric rail_fast ship" speed="22.22" length="12.48" shape="1530.18,921.56 1532.94,919.65 1535.21,917.87 1537.42,916.01 1540.00,913.86"/>
    </edge>
    <edge id=":10943886927_2" function="internal">
        <lane id=":10943886927_2_0" index="0" disallow="pedestrian bicycle tram rail_urban rail rail_electric rail_fast ship" speed="7.77" length="10.49" shape="1530.18,921.56 1532.89,920.18 1535.41,919.70 1537.74,920.13 1539.88,921.46"/>
    </edge>
    <edge id=":10943886932_0" function="internal">
        <lane id=":10943886932_0_0" index="0" disallow="pedestrian bicycle tram rail_urban rail rail_electric rail_fast ship" speed="5.98" length="7.52" shape="1551.42,935.72 1552.90,938.00 1554.31,939.43 1555.66,940.00 1556.96,939.71"/>
    </edge>
    <edge id=":10943886932_1" function="internal">
        <lane id=":10943886932_1_0" index="0" disallow="pedestrian bicycle tram rail_urban rail rail_electric rail_fast ship" speed="27.78" length="10.29" shape="1548.03,944.83 1556.96,939.71"/>
        <lane id=":10943886932_1_1" index="1" disallow="pedestrian bicycle tram rail_urban rail rail_electric rail_fast ship" speed="27.78" length="10.29" shape="1549.63,947.60 1558.55,942.48"/>
    </edge>
    <edge id=":10943886933_0" function="internal">
        <lane id=":10943886933_0_0" index="0" disallow="tram rail_urban rail rail_electric rail_fast ship" speed="12.24" length="9.64" shape="1556.89,899.09 1554.41,900.03 1552.51,899.75 1550.48,898.96 1547.66,898.32"/>
    </edge>
    <edge id=":10943886933_1" function="internal">
        <lane id=":10943886933_1_0" index="0" disallow="tram rail_urban rail rail_electric rail_fast ship" speed="3.65" length="1.27" shape="1556.89,899.09 1555.63,899.02"/>
    </edge>
    <edge id=":10943886933_4" function="internal">
        <lane id=":10943886933_4_0" index="0" disallow="tram rail_urban rail rail_electric rail_fast ship" speed="3.65" length="3.41" shape="1555.63,899.02 1555.45,899.01 1554.70,898.53 1554.64,897.63 1555.27,896.34"/>
    </edge>
    <edge id=":10943886933_2" function="internal">
        <lane id=":10943886933_2_0" index="0" disallow="tram rail_urban rail rail_electric rail_fast ship" speed="5.74" length="10.20" shape="1549.98,904.83 1551.87,902.26 1552.12,900.32 1550.71,899.00 1547.66,898.32"/>
    </edge>
    <edge id=":10943886933_3" function="internal">
        <lane id=":10943886933_3_0" index="0" disallow="tram rail_urban rail rail_electric rail_fast ship" speed="22.22" length="10.24" shape="1549.98,904.83 1551.65,902.32 1552.29,900.17 1553.11,898.22 1555.27,896.34"/>
    </edge>
    <edge id=":10943886935_0" function="internal">
        <lane id=":10943886935_0_0" index="0" disallow="tram rail_urban rail rail_electric rail_fast ship" speed="12.06" length="15.89" shape="1534.96,898.79 1531.39,900.77 1528.51,903.36 1526.31,906.54 1524.79,910.31"/>
    </edge>
    <edge id=":10943886935_1" function="internal">
        <lane id=":10943886935_1_0" index="0" disallow="tram rail_urban rail rail_electric rail_fast ship" speed="5.67" length="4.25" shape="1534.96,898.79 1532.56,899.43 1530.85,899.00"/>
    </edge>
    <edge id=":10943886935_4" function="internal">
        <lane id=":10943886935_4_0" index="0" disallow="tram rail_urban rail rail_electric rail_fast ship" speed="5.67" length="4.43" shape="1530.85,899.00 1529.83,897.50 1529.50,894.91"/>
    </edge>
    <edge id=":10943886935_2" function="internal">
        <lane id=":10943886935_2_0" index="0" disallow="tram rail_urban rail rail_electric rail_fast ship" speed="5.03" length="8.35" shape="1529.53,912.10 1528.06,909.22 1526.78,907.97 1525.69,908.33 1524.79,910.31"/>
    </edge>
    <edge id=":10943886935_3" function="internal">
        <lane id=":10943886935_3_0" index="0" disallow="tram rail_urban rail rail_electric rail_fast ship" speed="22.22" length="17.31" shape="1529.53,912.10 1528.70,908.18 1528.77,903.65 1529.22,899.06 1529.50,894.91"/>
    </edge>
    <edge id=":10943886944_0" function="internal">
        <lane id=":10943886944_0_0" index="0" disallow="tram rail_urban rail rail_electric rail_fast ship" speed="5.42" length="8.26" shape="1547.46,898.30 1544.98,898.39 1543.56,899.25 1543.19,900.86 1543.88,903.23"/>
    </edge>
    <edge id=":10943886944_1" function="internal">
        <lane id=":10943886944_1_0" index="0" disallow="tram rail_urban rail rail_electric rail_fast ship" speed="17.02" length="12.50" shape="1547.46,898.30 1544.08,897.89 1541.16,897.58 1538.31,897.74 1535.14,898.71"/>
    </edge>
    <edge id=":10943886944_2" function="internal">
        <lane id=":10943886944_2_0" index="0" disallow="tram rail_urban rail rail_electric rail_fast ship" speed="7.81" length="10.43" shape="1547.46,898.30 1543.87,897.27 1541.72,895.00 1541.02,891.50"/>
    </edge>
    <edge id=":10943886944_9" function="internal">
        <lane id=":10943886944_9_0" index="0" disallow="tram rail_urban rail rail_electric rail_fast ship" speed="7.81" length="4.80" shape="1541.02,891.50 1541.76,886.76"/>
    </edge>
    <edge id=":10943886944_3" function="internal">
        <lane id=":10943886944_3_0" index="0" disallow="tram rail_urban rail rail_electric rail_fast ship" speed="12.50" length="15.93" shape="1544.85,887.60 1543.86,891.43 1543.11,895.51 1543.00,899.54 1543.88,903.23"/>
    </edge>
    <edge id=":10943886944_4" function="internal">
        <lane id=":10943886944_4_0" index="0" disallow="tram rail_urban rail rail_electric rail_fast ship" speed="11.69" length="15.27" shape="1544.85,887.60 1543.44,891.23 1541.35,894.29 1538.59,896.79 1535.14,898.71"/>
    </edge>
    <edge id=":10943886944_5" function="internal">
        <lane id=":10943886944_5_0" index="0" disallow="tram rail_urban rail rail_electric rail_fast ship" speed="2.78" length="4.67" shape="1544.85,887.60 1543.76,888.55 1542.88,888.72 1542.22,888.13 1541.76,886.76"/>
    </edge>
    <edge id=":10943886944_6" function="internal">
        <lane id=":10943886944_6_0" index="0" disallow="tram rail_urban rail rail_electric rail_fast ship" speed="5.46" length="10.50" shape="1536.31,887.01 1537.80,890.18 1539.21,891.19 1540.53,890.05 1541.76,886.76"/>
    </edge>
    <edge id=":10943886944_7" function="internal">
        <lane id=":10943886944_7_0" index="0" disallow="tram rail_urban rail rail_electric rail_fast ship" speed="22.22" length="17.91" shape="1536.31,887.01 1537.93,890.89 1539.98,895.17 1542.09,899.43 1543.88,903.23"/>
    </edge>
    <edge id=":10943886944_8" function="internal">
        <lane id=":10943886944_8_0" index="0" disallow="tram rail_urban rail rail_electric rail_fast ship" speed="7.82" length="9.62" shape="1536.31,887.01 1537.55,891.37 1537.77,894.78 1537.24,896.37"/>
    </edge>
    <edge id=":10943886944_10" function="internal">
        <lane id=":10943886944_10_0" index="0" disallow="tram rail_urban rail rail_electric rail_fast ship" speed="7.82" length="3.24" shape="1537.24,896.37 1536.97,897.22 1535.14,898.71"/>
    </edge>
    <edge id=":10943886964_0" function="internal">
        <lane id=":10943886964_0_0" index="0" disallow="tram rail_urban rail rail_electric rail_fast ship" speed="3.65" length="4.67" shape="1543.84,0.63 1544.10,-0.79 1544.68,-1.47 1545.57,-1.42 1546.78,-0.63"/>
    </edge>
    <edge id=":10943886977_0" function="internal">
        <lane id=":10943886977_0_0" index="0" disallow="tram rail_urban rail rail_electric rail_fast ship" speed="22.22" length="8.05" shape="1533.63,877.29 1534.04,879.65 1534.29,881.27 1534.69,882.86 1535.53,885.08"/>
    </edge>
    <edge id=":10943886977_1" function="internal">
        <lane id=":10943886977_1_0" index="0" disallow="tram rail_urban rail rail_electric rail_fast ship" speed="3.65" length="1.44" shape="1533.63,877.29 1533.08,878.62"/>
    </edge>
    <edge id=":10943886977_4" function="internal">
        <lane id=":10943886977_4_0" index="0" disallow="tram rail_urban rail rail_electric rail_fast ship" speed="3.65" length="3.23" shape="1533.08,878.62 1532.37,879.17 1531.51,878.94 1530.49,877.92"/>
    </edge>
    <edge id=":10943886977_2" function="internal">
        <lane id=":10943886977_2_0" index="0" disallow="tram rail_urban rail rail_electric rail_fast ship" speed="11.51" length="4.38" shape="1530.22,882.23 1530.55,880.97 1530.72,880.08 1530.70,879.19 1530.49,877.92"/>
    </edge>
    <edge id=":10943886977_3" function="internal">
        <lane id=":10943886977_3_0" index="0" disallow="tram rail_urban rail rail_electric rail_fast ship" speed="5.30" length="3.19" shape="1530.22,882.23 1531.14,880.14 1532.03,879.97"/>
    </edge>
    <edge id=":10943886977_5" function="internal">
        <lane id=":10943886977_5_0" index="0" disallow="tram rail_urban rail rail_electric rail_fast ship" speed="5.30" length="6.42" shape="1532.03,879.97 1532.32,879.92 1533.79,881.57 1535.53,885.08"/>
    </edge>
    <edge id=":10943886984_0" function="internal">
        <lane id=":10943886984_0_0" index="0" disallow="tram rail_urban rail rail_electric rail_fast ship" speed="5.98" length="14.12" shape="1529.95,875.24 1528.61,870.19 1527.29,868.34 1525.97,869.69 1524.66,874.24"/>
    </edge>
    <edge id=":10943886984_1" function="internal">
        <lane id=":10943886984_1_0" index="0" disallow="tram rail_urban rail rail_electric rail_fast ship" speed="22.22" length="16.57" shape="1529.95,875.24 1529.18,871.32 1528.44,867.08 1527.88,862.83 1527.63,858.85"/>
    </edge>
    <edge id=":10943886984_2" function="internal">
        <lane id=":10943886984_2_0" index="0" disallow="tram rail_urban rail rail_electric rail_fast ship" speed="3.65" length="1.44" shape="1529.95,875.24 1530.50,873.91"/>
    </edge>
    <edge id=":10943886984_9" function="internal">
        <lane id=":10943886984_9_0" index="0" disallow="tram rail_urban rail rail_electric rail_fast ship" speed="3.65" length="3.23" shape="1530.50,873.91 1531.20,873.36 1532.06,873.59 1533.09,874.61"/>
    </edge>
    <edge id=":10943886984_3" function="internal">
        <lane id=":10943886984_3_0" index="0" disallow="tram rail_urban rail rail_electric rail_fast ship" speed="22.22" length="15.98" shape="1530.83,858.81 1531.07,862.70 1531.61,866.75 1532.33,870.78 1533.09,874.61"/>
    </edge>
    <edge id=":10943886984_4" function="internal">
        <lane id=":10943886984_4_0" index="0" disallow="tram rail_urban rail rail_electric rail_fast ship" speed="12.50" length="2.76" shape="1530.83,858.81 1530.27,861.52"/>
    </edge>
    <edge id=":10943886984_5" function="internal">
        <lane id=":10943886984_5_0" index="0" disallow="tram rail_urban rail rail_electric rail_fast ship" speed="3.65" length="1.44" shape="1530.83,858.81 1530.04,860.02"/>
    </edge>
    <edge id=":10943886984_10" function="internal">
        <lane id=":10943886984_10_0" index="0" disallow="tram rail_urban rail rail_electric rail_fast ship" speed="12.50" length="13.95" shape="1530.27,861.52 1530.04,862.64 1528.16,866.57 1526.07,870.47 1524.66,874.24"/>
    </edge>
    <edge id=":10943886984_11" function="internal">
        <lane id=":10943886984_11_0" index="0" disallow="tram rail_urban rail rail_electric rail_fast ship" speed="3.65" length="3.23" shape="1530.04,860.02 1529.25,860.43 1528.44,860.04 1527.63,858.85"/>
    </edge>
    <edge id=":10943886984_6" function="internal">
        <lane id=":10943886984_6_0" index="0" disallow="tram rail_urban rail rail_electric rail_fast ship" speed="12.50" length="14.71" shape="1521.82,872.23 1523.17,868.78 1525.14,865.58 1526.90,862.37 1527.63,858.85"/>
    </edge>
    <edge id=":10943886984_7" function="internal">
        <lane id=":10943886984_7_0" index="0" disallow="tram rail_urban rail rail_electric rail_fast ship" speed="6.29" length="15.80" shape="1521.82,872.23 1523.96,869.08 1527.48,868.72 1530.98,870.71 1533.09,874.61"/>
    </edge>
    <edge id=":10943886984_8" function="internal">
        <lane id=":10943886984_8_0" index="0" disallow="tram rail_urban rail rail_electric rail_fast ship" speed="2.78" length="5.09" shape="1521.82,872.23 1523.28,871.66 1524.25,871.81 1524.71,872.67 1524.66,874.24"/>
    </edge>
    <edge id=":10943886997_0" function="internal">
        <lane id=":10943886997_0_0" index="0" disallow="tram rail_urban rail rail_electric rail_fast ship" speed="3.65" length="4.67" shape="1454.08,734.29 1454.14,732.85 1454.62,732.09 1455.51,732.02 1456.81,732.63"/>
    </edge>
    <edge id=":10943886998_0" function="internal">
        <lane id=":10943886998_0_0" index="0" disallow="tram rail_urban rail rail_electric rail_fast ship" speed="22.22" length="14.49" shape="1455.76,971.65 1442.57,977.64"/>
    </edge>
    <edge id=":10943886998_1" function="internal">
        <lane id=":10943886998_1_0" index="0" disallow="tram rail_urban rail rail_electric rail_fast ship" speed="8.61" length="3.83" shape="1455.76,971.65 1452.23,972.64 1452.07,972.62"/>
    </edge>
    <edge id=":10943886998_2" function="internal">
        <lane id=":10943886998_2_0" index="0" disallow="tram rail_urban rail rail_electric rail_fast ship" speed="3.65" length="1.44" shape="1455.76,971.65 1454.34,971.42"/>
    </edge>
    <edge id=":10943886998_9" function="internal">
        <lane id=":10943886998_9_0" index="0" disallow="tram rail_urban rail rail_electric rail_fast ship" speed="8.61" length="10.67" shape="1452.07,972.62 1448.98,972.26 1446.01,970.51 1443.32,967.40"/>
    </edge>
    <edge id=":10943886998_10" function="internal">
        <lane id=":10943886998_10_0" index="0" disallow="tram rail_urban rail rail_electric rail_fast ship" speed="3.65" length="3.23" shape="1454.34,971.42 1453.64,970.86 1453.68,969.96 1454.44,968.74"/>
    </edge>
    <edge id=":10943886998_3" function="internal">
        <lane id=":10943886998_3_0" index="0" disallow="tram rail_urban rail rail_electric rail_fast ship" speed="7.23" length="9.93" shape="1445.98,965.62 1447.85,967.81 1449.89,969.07 1452.08,969.37 1454.44,968.74"/>
    </edge>
    <edge id=":10943886998_4" function="internal">
        <lane id=":10943886998_4_0" index="0" disallow="tram rail_urban rail rail_electric rail_fast ship" speed="7.73" length="14.86" shape="1445.98,965.62 1447.79,969.38 1447.82,972.64 1446.08,975.39 1442.57,977.64"/>
    </edge>
    <edge id=":10943886998_5" function="internal">
        <lane id=":10943886998_5_0" index="0" disallow="tram rail_urban rail rail_electric rail_fast ship" speed="3.65" length="4.67" shape="1445.98,965.62 1445.98,967.06 1445.54,967.84 1444.66,967.95 1443.32,967.40"/>
    </edge>
    <edge id=":10943886998_6" function="internal">
        <lane id=":10943886998_6_0" index="0" disallow="tram rail_urban rail rail_electric rail_fast ship" speed="6.18" length="9.05" shape="1441.25,974.73 1443.39,973.36 1444.45,971.68 1444.43,969.70 1443.32,967.40"/>
    </edge>
    <edge id=":10943886998_7" function="internal">
        <lane id=":10943886998_7_0" index="0" disallow="tram rail_urban rail rail_electric rail_fast ship" speed="22.22" length="14.49" shape="1441.25,974.73 1454.44,968.74"/>
    </edge>
    <edge id=":10943886998_8" function="internal">
        <lane id=":10943886998_8_0" index="0" disallow="tram rail_urban rail rail_electric rail_fast ship" speed="3.65" length="1.44" shape="1441.25,974.73 1442.67,974.96"/>
    </edge>
    <edge id=":10943886998_11" function="internal">
        <lane id=":10943886998_11_0" index="0" disallow="tram rail_urban rail rail_electric rail_fast ship" speed="3.65" length="3.23" shape="1442.67,974.96 1443.37,975.52 1443.33,976.42 1442.57,977.64"/>
    </edge>
    <edge id=":10943896220_0" function="internal">
        <lane id=":10943896220_0_0" index="0" disallow="tram rail_urban rail rail_electric rail_fast ship" speed="7.65" length="10.37" shape="1334.71,836.32 1331.97,834.93 1329.47,834.44 1327.19,834.86 1325.15,836.18"/>
    </edge>
    <edge id=":10943896220_1" function="internal">
        <lane id=":10943896220_1_0" index="0" disallow="tram rail_urban rail rail_electric rail_fast ship" speed="7.60" length="15.38" shape="1334.71,836.32 1331.31,833.40 1329.98,830.35 1330.71,827.18 1333.50,823.89"/>
    </edge>
    <edge id=":10943896220_2" function="internal">
        <lane id=":10943896220_2_0" index="0" disallow="tram rail_urban rail rail_electric rail_fast ship" speed="3.65" length="4.67" shape="1334.71,836.32 1334.14,834.99 1334.24,834.11 1335.01,833.65 1336.45,833.63"/>
    </edge>
    <edge id=":10943896220_3" function="internal">
        <lane id=":10943896220_3_0" index="0" disallow="tram rail_urban rail rail_electric rail_fast ship" speed="6.02" length="9.20" shape="1335.73,826.19 1334.06,828.16 1333.62,830.06 1334.42,831.88 1336.45,833.63"/>
    </edge>
    <edge id=":10943896220_4" function="internal">
        <lane id=":10943896220_4_0" index="0" disallow="tram rail_urban rail rail_electric rail_fast ship" speed="13.89" length="14.55" shape="1335.73,826.19 1325.15,836.18"/>
    </edge>
    <edge id=":10943896220_5" function="internal">
        <lane id=":10943896220_5_0" index="0" disallow="tram rail_urban rail rail_electric rail_fast ship" speed="3.65" length="1.44" shape="1335.73,826.19 1334.31,826.45"/>
    </edge>
    <edge id=":10943896220_9" function="internal">
        <lane id=":10943896220_9_0" index="0" disallow="tram rail_urban rail rail_electric rail_fast ship" speed="3.65" length="3.23" shape="1334.31,826.45 1333.46,826.15 1333.19,825.30 1333.50,823.89"/>
    </edge>
    <edge id=":10943896220_6" function="internal">
        <lane id=":10943896220_6_0" index="0" disallow="tram rail_urban rail rail_electric rail_fast ship" speed="13.89" length="14.47" shape="1322.98,833.82 1333.50,823.89"/>
    </edge>
    <edge id=":10943896220_7" function="internal">
        <lane id=":10943896220_7_0" index="0" disallow="tram rail_urban rail rail_electric rail_fast ship" speed="8.98" length="3.56" shape="1322.98,833.82 1325.95,831.85"/>
    </edge>
    <edge id=":10943896220_8" function="internal">
        <lane id=":10943896220_8_0" index="0" disallow="tram rail_urban rail rail_electric rail_fast ship" speed="3.65" length="1.44" shape="1322.98,833.82 1324.41,833.60"/>
    </edge>
    <edge id=":10943896220_10" function="internal">
        <lane id=":10943896220_10_0" index="0" disallow="tram rail_urban rail rail_electric rail_fast ship" speed="8.98" length="11.06" shape="1325.95,831.85 1329.19,831.16 1332.69,831.76 1336.45,833.63"/>
    </edge>
    <edge id=":10943896220_11" function="internal">
        <lane id=":10943896220_11_0" index="0" disallow="tram rail_urban rail rail_electric rail_fast ship" speed="3.65" length="3.23" shape="1324.41,833.60 1325.24,833.92 1325.49,834.78 1325.15,836.18"/>
    </edge>
    <edge id=":10943896225_0" function="internal">
        <lane id=":10943896225_0_0" index="0" disallow="tram rail_urban rail rail_electric rail_fast ship" speed="22.22" length="14.57" shape="1490.37,953.10 1477.99,960.79"/>
    </edge>
    <edge id=":10943896225_1" function="internal">
        <lane id=":10943896225_1_0" index="0" disallow="tram rail_urban rail rail_electric rail_fast ship" speed="8.89" length="2.99" shape="1490.37,953.10 1487.61,954.26"/>
    </edge>
    <edge id=":10943896225_2" function="internal">
        <lane id=":10943896225_2_0" index="0" disallow="tram rail_urban rail rail_electric rail_fast ship" speed="3.71" length="1.44" shape="1490.37,953.10 1488.93,953.05"/>
    </edge>
    <edge id=":10943896225_9" function="internal">
        <lane id=":10943896225_9_0" index="0" disallow="tram rail_urban rail rail_electric rail_fast ship" speed="8.89" length="11.66" shape="1487.61,954.26 1487.05,954.49 1483.75,954.55 1480.45,953.27 1477.16,950.65"/>
    </edge>
    <edge id=":10943896225_10" function="internal">
        <lane id=":10943896225_10_0" index="0" disallow="tram rail_urban rail rail_electric rail_fast ship" speed="3.71" length="3.23" shape="1488.93,953.05 1488.16,952.59 1488.08,951.70 1488.68,950.38"/>
    </edge>
    <edge id=":10943896225_3" function="internal">
        <lane id=":10943896225_3_0" index="0" disallow="tram rail_urban rail rail_electric rail_fast ship" speed="7.19" length="10.52" shape="1479.42,948.38 1481.99,950.50 1484.40,951.54 1486.62,951.50 1488.68,950.38"/>
    </edge>
    <edge id=":10943896225_4" function="internal">
        <lane id=":10943896225_4_0" index="0" disallow="tram rail_urban rail rail_electric rail_fast ship" speed="7.65" length="15.15" shape="1479.42,948.38 1481.99,951.82 1482.62,955.04 1481.28,958.03 1477.99,960.79"/>
    </edge>
    <edge id=":10943896225_5" function="internal">
        <lane id=":10943896225_5_0" index="0" disallow="tram rail_urban rail rail_electric rail_fast ship" speed="3.65" length="4.67" shape="1479.42,948.38 1479.70,949.80 1479.42,950.65 1478.57,950.93 1477.16,950.65"/>
    </edge>
    <edge id=":10943896225_6" function="internal">
        <lane id=":10943896225_6_0" index="0" disallow="tram rail_urban rail rail_electric rail_fast ship" speed="6.07" length="9.07" shape="1476.30,958.08 1478.27,956.42 1479.07,954.63 1478.70,952.71 1477.16,950.65"/>
    </edge>
    <edge id=":10943896225_7" function="internal">
        <lane id=":10943896225_7_0" index="0" disallow="tram rail_urban rail rail_electric rail_fast ship" speed="22.22" length="14.59" shape="1476.30,958.08 1479.49,956.21 1482.65,954.45 1485.73,952.57 1488.68,950.38"/>
    </edge>
    <edge id=":10943896225_8" function="internal">
        <lane id=":10943896225_8_0" index="0" disallow="tram rail_urban rail rail_electric rail_fast ship" speed="3.65" length="1.44" shape="1476.30,958.08 1477.74,958.12"/>
    </edge>
    <edge id=":10943896225_11" function="internal">
        <lane id=":10943896225_11_0" index="0" disallow="tram rail_urban rail rail_electric rail_fast ship" speed="3.65" length="3.23" shape="1477.74,958.12 1478.51,958.59 1478.59,959.48 1477.99,960.79"/>
    </edge>
    <edge id=":10943896226_0" function="internal">
        <lane id=":10943896226_0_0" index="0" disallow="tram rail_urban rail rail_electric rail_fast ship" speed="13.89" length="9.48" shape="1400.25,923.49 1392.65,917.82"/>
    </edge>
    <edge id=":10943896226_1" function="internal">
        <lane id=":10943896226_1_0" index="0" allow="pedestrian delivery bicycle" speed="6.75" length="3.42" shape="1400.25,923.49 1398.08,921.32 1397.96,920.99"/>
    </edge>
    <edge id=":10943896226_7" function="internal">
        <lane id=":10943896226_7_0" index="0" allow="pedestrian delivery bicycle" speed="6.75" length="7.52" shape="1397.96,920.99 1397.25,919.06 1397.76,916.71 1399.61,914.27"/>
    </edge>
    <edge id=":10943896226_2" function="internal">
        <lane id=":10943896226_2_0" index="0" allow="pedestrian delivery bicycle" speed="4.89" length="5.19" shape="1401.86,916.55 1400.98,917.71 1400.74,918.82 1401.13,919.89 1402.16,920.92"/>
    </edge>
    <edge id=":10943896226_3" function="internal">
        <lane id=":10943896226_3_0" index="0" allow="pedestrian delivery bicycle" speed="7.29" length="10.27" shape="1401.86,916.55 1399.52,918.37 1397.21,919.18 1394.92,919.00 1392.65,917.82"/>
    </edge>
    <edge id=":10943896226_4" function="internal">
        <lane id=":10943896226_4_0" index="0" allow="pedestrian delivery bicycle" speed="3.65" length="4.67" shape="1401.86,916.55 1400.44,916.82 1399.60,916.53 1399.32,915.68 1399.61,914.27"/>
    </edge>
    <edge id=":10943896226_5" function="internal">
        <lane id=":10943896226_5_0" index="0" allow="pedestrian delivery bicycle" speed="5.59" length="5.66" shape="1394.57,915.25 1395.75,915.84 1396.98,915.87 1398.27,915.35 1399.61,914.27"/>
    </edge>
    <edge id=":10943896226_6" function="internal">
        <lane id=":10943896226_6_0" index="0" disallow="tram rail_urban rail rail_electric rail_fast ship" speed="13.89" length="9.48" shape="1394.57,915.25 1402.16,920.92"/>
    </edge>
    <edge id=":10943896227_0" function="internal">
        <lane id=":10943896227_0_0" index="0" allow="pedestrian delivery bicycle" speed="5.73" length="5.82" shape="1423.40,899.20 1422.20,898.67 1420.94,898.70 1419.61,899.28 1418.21,900.41"/>
    </edge>
    <edge id=":10943896227_1" function="internal">
        <lane id=":10943896227_1_0" index="0" disallow="tram rail_urban rail rail_electric rail_fast ship" speed="13.89" length="9.51" shape="1423.40,899.20 1415.59,893.77"/>
    </edge>
    <edge id=":10943896227_2" function="internal">
        <lane id=":10943896227_2_0" index="0" disallow="tram rail_urban rail rail_electric rail_fast ship" speed="13.89" length="9.52" shape="1417.42,891.15 1425.23,896.58"/>
    </edge>
    <edge id=":10943896227_3" function="internal">
        <lane id=":10943896227_3_0" index="0" allow="pedestrian delivery bicycle" speed="6.73" length="3.46" shape="1417.42,891.15 1419.71,893.28 1419.83,893.59"/>
    </edge>
    <edge id=":10943896227_7" function="internal">
        <lane id=":10943896227_7_0" index="0" allow="pedestrian delivery bicycle" speed="6.73" length="7.66" shape="1419.83,893.59 1420.61,895.54 1420.11,897.92 1418.21,900.41"/>
    </edge>
    <edge id=":10943896227_4" function="internal">
        <lane id=":10943896227_4_0" index="0" allow="pedestrian delivery bicycle" speed="4.87" length="5.24" shape="1415.97,898.14 1416.86,896.96 1417.09,895.84 1416.67,894.78 1415.59,893.77"/>
    </edge>
    <edge id=":10943896227_5" function="internal">
        <lane id=":10943896227_5_0" index="0" allow="pedestrian delivery bicycle" speed="7.40" length="10.31" shape="1415.97,898.14 1418.33,896.28 1420.66,895.40 1422.96,895.50 1425.23,896.58"/>
    </edge>
    <edge id=":10943896227_6" function="internal">